CMOS
.SUBCKT INV IN VDD VSS OUT
	M1 OUT IN VSS VSS MOS1
	.MODEL MOS1 NMOS VTO = 1.5
	M2 OUT IN VDD VDD MOS2
	.MODEL MOS2 PMOS VTO = -1.5
.ENDS
X1 IN VDD 0 OUT INV
C1 OUT 0 0.5e-12
VDD VDD 0 5
VIN IN 0 DC 5 PULSE (0 5 0 1e-9 1e-9 1e-7 2e-7)