DOUBLE ALTERNATING RECTIFIER
.MODEL DIODE D TT = 5e-9
D1 IN OUT DIODE
D2 0 IN DIODE
D3 0 N DIODE
D4 N OUT DIODE
R OUT 0 100
VIN IN N DC 5 SIN (0 10 50 0 0)
#com
1e-6
1e-1
0
1e-6
#endcom